/*--------------------------------*- C++ -*----------------------------------*\
|                                                                             |
|    HiSA: High Speed Aerodynamic solver                                      |
|    Copyright (C) 2014-2017 Johan Heyns - CSIR, South Africa                 |
|    Copyright (C) 2014-2017 Oliver Oxtoby - CSIR, South Africa               |
|                                                                             |
\*---------------------------------------------------------------------------*/
FoamFile
{
    version     2.0;
    format      ascii;
    class       dictionary;
    object      motionProperties;
}
// * * * * * * * * * * * * * * * * * * * * * * * * * * * * * * * * * * * * * //

// OpenCFD:

dynamicFvMesh      dynamicMotionSolverFvMesh;

solver             displacementLaplacian;

displacementLaplacianCoeffs
{
    diffusivity       inverseFaceDistance (wing);
}

motionSolverLibs ("libfvMotionSolvers.so");


// Foundation:

mover
{
    type            motionSolver;

    libs            ("libfvMeshMovers.so" "libfvMotionSolvers.so");

    motionSolver             displacementLaplacian;

    displacementLaplacianCoeffs
    {
        diffusivity       inverseFaceDistance (wing);
    }
}

// ************************************************************************* //
