/*--------------------------------*- C++ -*----------------------------------*\
| =========                 |                                                 |
| \\      /  F ield         | OpenFOAM: The Open Source CFD Toolbox           |
|  \\    /   O peration     | Version:  13                                    |
\*---------------------------------------------------------------------------*/
FoamFile { version 2.0; format ascii; class dictionary; object fvSolution; }
solvers {}
// ************************************************************************* //
