/*--------------------------------*- C++ -*----------------------------------*\
| =========                 |                                                 |
| \\      /  F ield         | OpenFOAM: The Open Source CFD Toolbox           |
|  \\    /   O peration     | Version:  13                                    |
|   \\  /    A nd           | Web:      www.OpenFOAM.org                      |
|    \\/     M anipulation  |                                                 |
\*---------------------------------------------------------------------------*/
FoamFile
{
    version     2.0;
    format      ascii;
    class       dictionary;
    object      snappyHexMeshDict;
}
// * * * * * * * * * * * * * * * * * * * * * * * * * * * * * * * * * * * * * //

castellatedMesh true;
snap            true;
addLayers       false;

geometry
{
    64a004.stl
    {
        type triSurfaceMesh;
        file "64a004.stl";
        name wing;
    }

    // Refinement box around wing
    wingBox
    {
        type searchableBox;
        min (-0.5 -0.5 -0.1);
        max ( 2.0  0.5  1.0);
    }
}

castellatedMeshControls
{
    maxLocalCells       2000000;
    maxGlobalCells      6000000;
    minRefinementCells  10;
    maxLoadUnbalance    0.10;
    nCellsBetweenLevels 3;

    features
    (
        {
            file "64a004.eMesh";
            level 5;
        }
    );

    refinementSurfaces
    {
        wing
        {
            level (5 6);
            patchInfo
            {
                type patch;
                inGroups (wing);
            }
        }
    }

    refinementRegions
    {
        wingBox
        {
            mode inside;
            levels ((1E15 3));
        }
    }

    // Point inside the domain (not inside the wing)
    locationInMesh (5 5 5);

    allowFreeStandingZoneFaces true;
}

snapControls
{
    nSmoothPatch    3;
    tolerance       2.0;
    nSolveIter      30;
    nRelaxIter      5;
    nFeatureSnapIter 10;
    implicitFeatureSnap false;
    explicitFeatureSnap true;
    multiRegionFeatureSnap false;
}

addLayersControls
{
    relativeSizes true;

    layers
    {
        wing
        {
            nSurfaceLayers 3;
        }
    }

    expansionRatio      1.2;
    finalLayerThickness 0.3;
    minThickness        0.1;
    nGrow               0;
    featureAngle        60;
    slipFeatureAngle    30;
    nRelaxIter          3;
    nSmoothSurfaceNormals 1;
    nSmoothNormals      3;
    nSmoothThickness    10;
    maxFaceThicknessRatio 0.5;
    maxThicknessToMedialRatio 0.3;
    minMedialAxisAngle  90;
    nBufferCellsNoExtrude 0;
    nLayerIter          50;
}

meshQualityControls
{
    maxNonOrtho         65;
    maxBoundarySkewness 20;
    maxInternalSkewness 4;
    maxConcave          80;
    minVol              1e-13;
    minTetQuality       -1e30;
    minArea             -1;
    minTwist            0.02;
    minDeterminant      0.001;
    minFaceWeight       0.02;
    minVolRatio         0.01;
    minTriangleTwist    -1;
    nSmoothScale        4;
    errorReduction      0.75;
}

writeFlags
(
    scalarLevels
    meshQuality
);

mergeTolerance 1e-6;

// ************************************************************************* //
