/*--------------------------------*- C++ -*----------------------------------*\
|                                                                             |
|    HiSA: High Speed Aerodynamic solver                                      |
|    Copyright (C) 2014-2017 Johan Heyns - CSIR, South Africa                 |
|    Copyright (C) 2014-2017 Oliver Oxtoby - CSIR, South Africa               |
|                                                                             |
\*---------------------------------------------------------------------------*/
FoamFile
{
    version         2.0;
    format          ascii;
    class           volScalarField;
    object          p;
}

// * * * * * * * * * * * * * * * * * * * * * * * * * * * * * * * * * * * * * //

#include         "include/freestreamConditions"

dimensions      [1 -1 -2 0 0 0 0];

internalField   uniform $p;

boundaryField
{
    "(farfield)"
    {
        type            characteristicFarfieldPressure;
        #include        "include/freestreamConditions"
        value           $internalField;
    }
    symmetry
    {
        type            zeroGradient;
    }
    "(wing)"
    {
        type            characteristicWallPressure;
        value           $internalField;
    }

    #include "include/redistributeHelper"

}


// ************************************************************************* //
